MPC_Fuchs/5 - MPC PEAK SHAVING - SUAVIZACAO - REGULACAO/RESULTADOS/Sistema_FDC_curva_uma_semana/perfil_de_tensao_FDC.csv
# perfil_de_tensao_FDC.csv run at 2017-11-03 00:00:00 PDT on 470 nodes
node_name,voltA_mag,voltA_angle,voltB_mag,voltB_angle,voltC_mag,voltC_angle
barra_Rede_principal,19918.500000,0.000000,19918.500000,4.188790,19918.500000,2.094395
barra_1,19901.610607,-0.021954,19921.793031,4.167408,19918.677338,2.071879
medidor_SE,7957.388982,-0.023107,7965.948171,4.166266,7964.524149,2.070678
barra_2,7957.334862,-0.023115,7965.913536,4.166258,7964.484713,2.070669
barra_BAT_1,7957.359973,-0.023121,7965.938967,4.166254,7964.512991,2.070665
barra_BAT_2,7957.359549,-0.023121,7965.938545,4.166254,7964.512568,2.070665
medidor_BAT,7957.361999,-0.023121,7965.941026,4.166254,7964.515327,2.070664
barra_PV_1,7957.334862,-0.023115,7965.913536,4.166258,7964.484713,2.070669
barra_PV_2,7957.334862,-0.023115,7965.913536,4.166258,7964.484713,2.070669
medidor_PV,7957.334862,-0.023115,7965.913536,4.166258,7964.484713,2.070669
barra_2_saida,7957.176400,-0.023121,7965.793403,4.166251,7964.349287,2.070661
medidor_carga,7957.255631,-0.023118,7965.853470,4.166255,7964.417000,2.070665
barra_trafo_1,7955.018060,-0.023187,7963.978295,4.166141,7962.628363,2.070544
barra_trafo_2,7954.946432,-0.023189,7963.914835,4.166136,7962.578909,2.070540
barra_trafo_3,7956.125419,-0.023154,7964.913697,4.166198,7963.508326,2.070604
barra_trafo_4,7956.114849,-0.023154,7964.904802,4.166197,7963.502138,2.070604
barra_trafo_5,7956.118336,-0.023154,7964.907737,4.166197,7963.504180,2.070604
barra_trafo_6,7955.482850,-0.023174,7964.376012,4.166165,7962.986263,2.070570
barra_trafo_7,7955.464614,-0.023175,7964.360769,4.166164,7962.972632,2.070569
barra_trafo_8,7954.540577,-0.023208,7963.598165,4.166120,7962.194082,2.070519
barra_trafo_9,7954.286633,-0.023216,7963.387282,4.166107,7961.982680,2.070506
barra_trafo_10,7954.023210,-0.023217,7963.150395,4.166104,7961.743990,2.070501
barra_trafo_11,7953.812083,-0.023219,7962.962701,4.166102,7961.550796,2.070498
barra_trafo_12,7954.125121,-0.023217,7963.240848,4.166105,7961.837404,2.070503
barra_trafo_13,7954.927370,-0.023189,7963.903622,4.166143,7962.517299,2.070545
barra_trafo_14,7954.916245,-0.023189,7963.892462,4.166143,7962.509039,2.070544
barra_trafo_15,7954.908708,-0.023189,7963.885962,4.166142,7962.501891,2.070544
barra_trafo_16,7955.076797,-0.023185,7964.027630,4.166144,7962.669758,2.070548
barra_trafo_17,7955.079218,-0.023185,7964.029148,4.166144,7962.672896,2.070548
barra_trafo_18,7955.096729,-0.023185,7964.047128,4.166146,7962.681174,2.070549
barra_trafo_19,7955.033706,-0.023187,7963.992061,4.166141,7962.639337,2.070545
barra_trafo_20,7955.033706,-0.023187,7963.992061,4.166141,7962.639337,2.070545
barra_trafo_21,7955.033706,-0.023187,7963.992061,4.166141,7962.639337,2.070545
barra_trafo_22,7955.033706,-0.023187,7963.992061,4.166141,7962.639337,2.070545
barra_trafo_23,7955.033706,-0.023187,7963.992061,4.166141,7962.639337,2.070545
barra_trafo_24,7955.033706,-0.023187,7963.992061,4.166141,7962.639337,2.070545
barra_trafo_25,7955.033706,-0.023187,7963.992061,4.166141,7962.639337,2.070545
barra_trafo_26,7955.033706,-0.023187,7963.992061,4.166141,7962.639337,2.070545
barra_trafo_27,7955.085247,-0.023186,7964.036937,4.166145,7962.674790,2.070548
barra_trafo_28,7954.928959,-0.023188,7963.898742,4.166137,7962.560130,2.070540
barra_trafo_29,7954.928861,-0.023188,7963.897064,4.166136,7962.564432,2.070540
barra_trafo_30,7954.896340,-0.023188,7963.863418,4.166135,7962.540571,2.070539
barra_trafo_31,7954.898497,-0.023187,7963.863130,4.166135,7962.545224,2.070539
barra_trafo_32,7954.879803,-0.023188,7963.848520,4.166135,7962.525732,2.070539
barra_trafo_33,7954.843631,-0.023187,7963.812842,4.166135,7962.493175,2.070539
barra_trafo_34,7951.640919,-0.023203,7960.948663,4.166109,7959.497664,2.070496
barra_trafo_35,7950.605279,-0.023209,7960.022272,4.166097,7958.546779,2.070479
barra_trafo_36,7950.357378,-0.023210,7959.800291,4.166095,7958.319165,2.070475
barra_trafo_37,7950.296748,-0.023210,7959.746419,4.166094,7958.263396,2.070474
barra_trafo_38,7950.312141,-0.023210,7959.759821,4.166094,7958.277614,2.070475
barra_trafo_39,7950.369282,-0.023210,7959.811027,4.166095,7958.330073,2.070476
barra_trafo_40,7950.501420,-0.023206,7959.921886,4.166099,7958.447835,2.070481
barra_trafo_41,7950.415315,-0.023207,7959.845259,4.166098,7958.368692,2.070479
barra_trafo_42,7955.036099,-0.023185,7963.992611,4.166148,7962.611673,2.070550
barra_3,7956.608382,-0.023139,7965.317997,4.166222,7963.892581,2.070630
barra_4,7956.143981,-0.023154,7964.929318,4.166199,7963.519191,2.070605
barra_5,7955.523919,-0.023173,7964.410450,4.166168,7963.016442,2.070572
barra_6,7955.402127,-0.023177,7964.308540,4.166161,7962.917455,2.070565
barra_7,7955.159527,-0.023185,7964.103412,4.166149,7962.724613,2.070552
barra_8,7955.107770,-0.023185,7964.057431,4.166146,7962.690467,2.070549
barra_9,7955.091568,-0.023186,7964.042970,4.166145,7962.679920,2.070548
barra_10,7955.033706,-0.023187,7963.992061,4.166141,7962.639337,2.070545
barra_11,7954.961741,-0.023188,7963.928533,4.166137,7962.589165,2.070541
barra_12,7954.951323,-0.023188,7963.919152,4.166137,7962.582301,2.070540
barra_13,7956.118336,-0.023154,7964.907737,4.166197,7963.504180,2.070604
barra_14,7955.062577,-0.023189,7964.028183,4.166145,7962.633852,2.070547
barra_15,7954.139941,-0.023217,7963.255280,4.166106,7961.849843,2.070503
barra_16,7954.029908,-0.023217,7963.156635,4.166104,7961.749871,2.070501
barra_17,7954.919790,-0.023189,7963.896309,4.166143,7962.511244,2.070545
barra_18,7955.079826,-0.023185,7964.030579,4.166144,7962.672132,2.070548
barra_19,7955.033706,-0.023187,7963.992061,4.166141,7962.639337,2.070545
barra_20,7955.033706,-0.023187,7963.992061,4.166141,7962.639337,2.070545
barra_21,7955.033706,-0.023187,7963.992061,4.166141,7962.639337,2.070545
barra_22,7954.900173,-0.023188,7963.867416,4.166135,7962.543341,2.070539
barra_23,7950.931897,-0.023207,7960.314132,4.166101,7958.846754,2.070485
barra_24,7950.396585,-0.023210,7959.835495,4.166095,7958.355139,2.070476
barra_25,7950.369282,-0.023210,7959.811027,4.166095,7958.330073,2.070476
barra_26,7950.654498,-0.023208,7960.064780,4.166098,7958.592402,2.070480
barra_27,7950.508518,-0.023206,7959.928438,4.166099,7958.454300,2.070481
barra_trafo_43,7955.549197,-0.023206,7964.937642,4.166211,7962.713050,2.070566
barra_trafo_44,7955.846001,-0.023188,7965.084578,4.166218,7963.025040,2.070584
barra_trafo_45,7954.967476,-0.023218,7964.505111,4.166199,7962.185052,2.070545
barra_trafo_46,7955.042857,-0.023218,7964.574803,4.166201,7962.246451,2.070546
barra_trafo_47,7954.234642,-0.023262,7964.393252,4.166220,7961.125681,2.070521
barra_trafo_48,7954.320580,-0.023263,7964.475941,4.166222,7961.188213,2.070522
barra_trafo_49,7953.131540,-0.023253,0.000000,0.000000,7959.634010,2.070560
barra_trafo_50,7952.817616,-0.023250,0.000000,0.000000,7959.232056,2.070569
barra_trafo_51,7952.797364,-0.023250,0.000000,0.000000,7959.206122,2.070570
barra_trafo_52,7952.745692,-0.023250,0.000000,0.000000,7959.139960,2.070571
barra_trafo_53,7952.579531,-0.023248,0.000000,0.000000,7958.927202,2.070576
barra_trafo_54,7952.469053,-0.023247,0.000000,0.000000,7958.785745,2.070579
barra_trafo_55,7952.345247,-0.023246,0.000000,0.000000,7958.627221,2.070583
barra_trafo_56,7952.304138,-0.023246,0.000000,0.000000,7958.574585,2.070584
barra_trafo_57,7952.247253,-0.023246,0.000000,0.000000,7958.501749,2.070586
barra_trafo_58,7952.468630,-0.023247,0.000000,0.000000,7958.785199,2.070579
barra_trafo_59,7952.195611,-0.023245,0.000000,0.000000,7958.435604,2.070587
barra_trafo_60,7952.060990,-0.023244,0.000000,0.000000,7958.263220,2.070591
barra_trafo_61,7952.049400,-0.023244,0.000000,0.000000,7958.248379,2.070591
barra_trafo_62,7952.079001,-0.023244,0.000000,0.000000,7958.286282,2.070591
barra_trafo_63,7951.993629,-0.023243,0.000000,0.000000,7958.176963,2.070593
barra_trafo_64,7951.975992,-0.023243,0.000000,0.000000,7958.154380,2.070594
barra_trafo_65,7951.980654,-0.023243,0.000000,0.000000,7958.160350,2.070593
barra_trafo_66,7951.957427,-0.023243,0.000000,0.000000,7958.130606,2.070594
barra_trafo_67,7951.923085,-0.023243,0.000000,0.000000,7958.086632,2.070595
barra_trafo_68,7953.135642,-0.023253,0.000000,0.000000,7959.639267,2.070560
barra_trafo_69,7952.840643,-0.023251,0.000000,0.000000,7959.261549,2.070568
barra_trafo_70,7952.537538,-0.023248,0.000000,0.000000,7958.873440,2.070577
barra_trafo_71,7952.375505,-0.023247,0.000000,0.000000,7958.665967,2.070582
barra_trafo_72,7952.124172,-0.023245,0.000000,0.000000,7958.344151,2.070589
barra_trafo_73,7951.520123,-0.023239,0.000000,0.000000,7957.570700,2.070607
barra_trafo_74,7951.374703,-0.023238,0.000000,0.000000,7957.384498,2.070611
barra_trafo_75,7951.351930,-0.023238,0.000000,0.000000,7957.355338,2.070612
barra_trafo_76,7951.321134,-0.023238,0.000000,0.000000,7957.315906,2.070613
barra_trafo_77,7951.180382,-0.023237,0.000000,0.000000,7957.135680,2.070617
barra_trafo_78,7951.120124,-0.023236,0.000000,0.000000,7957.058525,2.070619
barra_trafo_79,7951.115392,-0.023236,0.000000,0.000000,7957.052464,2.070619
barra_trafo_80,7951.050771,-0.023235,0.000000,0.000000,7956.969725,2.070621
barra_trafo_81,7951.060201,-0.023236,0.000000,0.000000,7956.981801,2.070620
barra_trafo_82,7951.051185,-0.023235,0.000000,0.000000,7956.970254,2.070621
barra_trafo_83,7951.707097,-0.023241,0.000000,0.000000,7957.810126,2.070601
barra_trafo_84,7951.650052,-0.023240,0.000000,0.000000,7957.737093,2.070603
barra_trafo_85,7951.641911,-0.023240,0.000000,0.000000,7957.726671,2.070603
barra_trafo_86,7951.632233,-0.023240,0.000000,0.000000,7957.714280,2.070604
barra_trafo_87,7951.694195,-0.023241,0.000000,0.000000,7957.793608,2.070602
barra_trafo_88,7951.694195,-0.023241,0.000000,0.000000,7957.793608,2.070602
barra_trafo_89,7954.881423,-0.023239,7964.624974,4.166207,7961.963386,2.070533
barra_28,7956.891922,-0.023136,7965.643521,4.166244,7964.063949,2.070644
barra_29,7955.859719,-0.023189,7965.099682,4.166218,7963.028629,2.070584
barra_30,7955.859227,-0.023189,7965.099229,4.166218,7963.028645,2.070584
barra_31,7955.302847,-0.023221,7964.821505,4.166207,7962.442243,2.070551
barra_32,7955.096550,-0.023238,7964.762398,4.166208,7962.165284,2.070538
barra_33,7954.958444,-0.023242,7964.706711,4.166210,7961.998714,2.070535
barra_34,7954.382933,-0.023264,7964.534763,4.166224,7961.236321,2.070524
barra_35,7953.422603,-0.023255,0.000000,0.000000,7960.006695,2.070551
barra_36,7952.831927,-0.023251,0.000000,0.000000,7959.250377,2.070569
barra_37,7952.750658,-0.023250,0.000000,0.000000,7959.146318,2.070571
barra_38,7952.220828,-0.023245,0.000000,0.000000,7958.467892,2.070586
barra_39,7952.081241,-0.023244,0.000000,0.000000,7958.289151,2.070590
barra_40,7952.130420,-0.023245,0.000000,0.000000,7958.352152,2.070589
barra_41,7951.786331,-0.023242,0.000000,0.000000,7957.911569,2.070599
barra_42,7951.524694,-0.023239,0.000000,0.000000,7957.576554,2.070607
barra_43,7951.131876,-0.023236,0.000000,0.000000,7957.073573,2.070618
barra_44,7951.067841,-0.023236,0.000000,0.000000,7956.991583,2.070620
barra_45,7951.694195,-0.023241,0.000000,0.000000,7957.793608,2.070602
carga_1,126.778522,-0.547794,126.793916,3.642199,126.918343,1.547099
carga_2,126.796877,-0.547696,126.812358,3.642297,126.936830,1.547195
carga_4,126.814167,-0.547641,126.828172,3.642336,126.951538,1.547253
carga_6,126.767695,-0.547863,126.782505,3.642122,126.906513,1.547030
carga_7,126.746069,-0.547975,126.760904,3.642011,126.884950,1.546918
carga_8,125.676870,-0.553489,125.693015,3.636512,125.819021,1.541415
carga_9,126.650979,-0.548434,126.667320,3.641569,126.792586,1.546458
carga_10,126.725556,-0.548029,126.742093,3.641977,126.867437,1.546862
carga_11,126.186647,-0.550810,126.203421,3.639199,126.329429,1.544088
carga_12,126.780020,-0.547753,126.796471,3.642251,126.921702,1.547138
carga_13,126.611850,-0.548651,126.627317,3.641342,126.751957,1.546243
carga_14,126.831285,-0.547511,126.846735,3.642482,126.971164,1.547380
carga_15,126.763604,-0.547862,126.779067,3.642131,126.903567,1.547030
carga_16,126.808122,-0.547641,126.823433,3.642350,126.947772,1.547251
carga_17,126.854155,-0.547402,126.869459,3.642589,126.993751,1.547489
carga_18,126.769635,-0.547842,126.784927,3.642150,126.909289,1.547051
carga_27,126.794862,-0.547711,126.810167,3.642281,126.934515,1.547182
carga_28,126.688101,-0.548259,126.703602,3.641734,126.828186,1.546634
carga_29,126.753740,-0.547919,126.769239,3.642075,126.893760,1.546973
carga_30,126.826398,-0.547540,126.841914,3.642454,126.966382,1.547352
carga_31,126.851446,-0.547410,126.866958,3.642584,126.991398,1.547481
carga_32,126.737215,-0.548002,126.752754,3.641992,126.877319,1.546891
carga_33,126.785896,-0.547745,126.801449,3.642249,126.925980,1.547146
carga_34,126.707567,-0.547928,126.725544,3.642095,126.851972,1.546962
carga_35,126.033226,-0.551357,126.052112,3.638676,126.179831,1.543540
carga_36,126.349271,-0.549701,126.368304,3.640334,126.495845,1.545192
carga_37,126.119638,-0.550888,126.138753,3.639147,126.266564,1.544007
carga_38,126.295969,-0.549975,126.315045,3.640061,126.442667,1.544919
carga_40,126.614849,-0.548329,126.633694,3.641704,126.760853,1.546561
carga_41,126.150271,-0.550734,126.169253,3.639300,126.296935,1.544161
carga_42,126.798767,-0.547684,126.814079,3.642307,126.938433,1.547208
carga_43,126.782948,-0.547786,126.800589,3.642230,126.926514,1.547103
carga_44,126.839486,-0.547501,126.856175,3.642505,126.981372,1.547389
carga_45,126.643619,-0.548480,126.662369,3.641549,126.789200,1.546409
carga_46,126.753982,-0.547912,126.772656,3.642115,126.899335,1.546976
carga_47,126.661605,-0.548339,126.684787,3.641723,126.812995,1.546536
carga_48,126.550037,-0.548923,126.573171,3.641138,126.701449,1.545953
carga_49,126.720178,-0.024030,0.000000,0.000000,126.823897,2.069784
carga_50,126.611568,-0.025195,0.000000,0.000000,126.713967,2.068628
carga_51,126.691854,-0.024286,0.000000,0.000000,126.794097,2.069535
carga_52,126.696780,-0.024221,0.000000,0.000000,126.798787,2.069601
carga_53,126.676876,-0.024414,0.000000,0.000000,126.778153,2.069412
carga_54,126.588703,-0.025386,0.000000,0.000000,126.689555,2.068444
carga_55,126.696141,-0.024153,0.000000,0.000000,126.796352,2.069678
carga_56,126.655219,-0.024607,0.000000,0.000000,126.755278,2.069226
carga_57,126.647403,-0.024684,0.000000,0.000000,126.747213,2.069150
carga_58,126.502047,-0.026361,0.000000,0.000000,126.602967,2.067471
carga_59,126.636214,-0.024800,0.000000,0.000000,126.735800,2.069034
carga_60,126.703102,-0.024021,0.000000,0.000000,126.802032,2.069815
carga_61,126.679922,-0.024280,0.000000,0.000000,126.778818,2.069557
carga_62,126.744738,-0.023555,0.000000,0.000000,126.843716,2.070280
carga_63,126.702027,-0.024021,0.000000,0.000000,126.800656,2.069817
carga_64,126.701746,-0.024021,0.000000,0.000000,126.800296,2.069818
carga_65,126.678825,-0.024280,0.000000,0.000000,126.777413,2.069559
carga_66,126.701450,-0.024020,0.000000,0.000000,126.799917,2.069818
carga_67,126.700902,-0.024020,0.000000,0.000000,126.799215,2.069819
carga_68,126.743219,-0.023771,0.000000,0.000000,126.846937,2.070043
carga_69,126.481950,-0.026656,0.000000,0.000000,126.584559,2.067168
carga_70,126.710703,-0.024025,0.000000,0.000000,126.811765,2.069801
carga_71,126.749466,-0.023557,0.000000,0.000000,126.849771,2.070272
carga_72,126.704110,-0.024022,0.000000,0.000000,126.803323,2.069813
carga_73,126.671478,-0.024276,0.000000,0.000000,126.768006,2.069572
carga_74,126.692155,-0.024015,0.000000,0.000000,126.788016,2.069835
carga_75,126.691792,-0.024015,0.000000,0.000000,126.787550,2.069836
carga_76,126.622257,-0.024793,0.000000,0.000000,126.717931,2.069060
carga_77,126.684129,-0.024069,0.000000,0.000000,126.779124,2.069785
carga_78,126.665096,-0.024273,0.000000,0.000000,126.759835,2.069583
carga_79,126.688019,-0.024013,0.000000,0.000000,126.782719,2.069843
carga_80,126.614486,-0.024830,0.000000,0.000000,126.708952,2.069028
carga_81,126.555822,-0.025492,0.000000,0.000000,126.650374,2.068367
carga_82,126.686995,-0.024013,0.000000,0.000000,126.781408,2.069844
carga_83,126.697457,-0.024018,0.000000,0.000000,126.794805,2.069825
carga_84,126.696547,-0.024018,0.000000,0.000000,126.793640,2.069827
carga_85,126.419338,-0.027135,0.000000,0.000000,126.516609,2.066715
carga_86,126.627222,-0.024796,0.000000,0.000000,126.724288,2.069051
carga_89,126.795917,-0.547690,126.815992,3.642350,126.943326,1.547194
